/*--------------------------------*- C++ -*----------------------------------*\
| =========                 |                                                 |
| \\      /  F ield         | OpenFOAM: The Open Source CFD Toolbox           |
|  \\    /   O peration     | Version:  2.3.1                                 |
|   \\  /    A nd           | Web:      www.OpenFOAM.org                      |
|    \\/     M anipulation  |                                                 |
\*---------------------------------------------------------------------------*/
FoamFile
{
    version     2.0;
    format      ascii;
    class       dictionary;
    object      blockMeshDict;
}
// * * * * * * * * * * * * * * * * * * * * * * * * * * * * * * * * * * * * * //

convertToMeters 1;

vertices
(
 /*Block 1*/
    (0 0.1 -0.1) //0
    (1 0.1 -0.1) //1
    (1 0.2 -0.1) //2
    (0 0.2 -0.1) //3
    (0 0.1 0)//4
    (1 0.1 0)//5
    (1 0.2 0)//6
    (0 0.2 0)//7

/*Block 2 */
   
   (1 0 -0.1) //8
   (2 0 -0.1) //9
   (2 0.2 -0.1) //10 
   
   (1 0 0) //11
   (2 0 0) //12
   (2 0.2 0) //13 

/*Block 3 */
  (2 0.1 0) //14
  (2 0.1 -0.1) //15
   
   
   
);

blocks
(
    /* Back side ACW front side CW */
    hex (0 1 2 3 4 5 6 7) (800 80 1) simpleGrading (1 1 1)
    hex (1 15 10 2 5 14 13 6) (800 80 1) simpleGrading (1 1 1)
    hex (8 9 15 1 11 12 14 5) (800 80 1) simpleGrading (1 1 1)
);

edges
(
);

boundary
(
    inlet
    {
        type patch;
        faces
        (
            (4 7 3 0) //CW
        );
    }
    outlet
    {
        type patch;
        faces
        (
            (12 9 15 14) //ACW
	    (14 15 10 13)
        );
    }
 upperWall
    {
        type wall;
        faces
        (
            (7 6 2 3) //
            (6 13 10 2)
           // (1 5 14 15)
        );
    }
    lowerWall
    {
        type wall;
        faces
        (
            (4 0 1 5)
            (11 8 9 12)
            (11 5 1 8)
        );
    }
    frontAndBack
    {
        type empty;
        faces
        (
            (0 3 2 1) //block 1 back 
            (8 1 15 9) //block 3 back
            (1 2 10 15) // block 2 back
            (5 14 13 6) // block 3 front
            (4 5 6 7) // block 1 front
            (5 11 12 14) // block 2 front
        );
    }
);

mergePatchPairs
(
);


// ************************************************************************* //
