/*--------------------------------*- C++ -*----------------------------------*\
| =========                 |                                                 |
| \\      /  F ield         | OpenFOAM: The Open Source CFD Toolbox           |
|  \\    /   O peration     | Version:  2.3.1                                 |
|   \\  /    A nd           | Web:      www.OpenFOAM.org                      |
|    \\/     M anipulation  |                                                 |
\*---------------------------------------------------------------------------*/
FoamFile
{
    version     2.0;
    format      ascii;
    class       polyBoundaryMesh;
    location    "constant/polyMesh";
    object      boundary;
}
// * * * * * * * * * * * * * * * * * * * * * * * * * * * * * * * * * * * * * //

4
(
    inlet
    {
        type            patch;
        nFaces          20;
        startFace       23560;
    }
    outlet
    {
        type            patch;
        nFaces          40;
        startFace       23580;
    }
    fixedWalls
    {
        type            wall;
        inGroups        1(wall);
        nFaces          820;
        startFace       23620;
    }
    frontAndBack
    {
        type            empty;
        inGroups        1(empty);
        nFaces          24000;
        startFace       24440;
    }
)

// ************************************************************************* //
