/*--------------------------------*- C++ -*----------------------------------*\
| =========                 |                                                 |
| \\      /  F ield         | OpenFOAM: The Open Source CFD Toolbox           |
|  \\    /   O peration     | Version:  2.3.1                                 |
|   \\  /    A nd           | Web:      www.OpenFOAM.org                      |
|    \\/     M anipulation  |                                                 |
\*---------------------------------------------------------------------------*/
FoamFile
{
    version     2.0;
    format      ascii;
    class       polyBoundaryMesh;
    location    "constant/polyMesh";
    object      boundary;
}
// * * * * * * * * * * * * * * * * * * * * * * * * * * * * * * * * * * * * * //

4
(
    inlet
    {
        type            patch;
        nFaces          30;
        startFace       53340;
    }
    outlet
    {
        type            patch;
        nFaces          60;
        startFace       53370;
    }
    fixedWalls
    {
        type            wall;
        inGroups        1(wall);
        nFaces          1230;
        startFace       53430;
    }
    frontAndBack
    {
        type            empty;
        inGroups        1(empty);
        nFaces          54000;
        startFace       54660;
    }
)

// ************************************************************************* //
