/*--------------------------------*- C++ -*----------------------------------*\
| =========                 |                                                 |
| \\      /  F ield         | OpenFOAM: The Open Source CFD Toolbox           |
|  \\    /   O peration     | Version:  2.3.1                                 |
|   \\  /    A nd           | Web:      www.OpenFOAM.org                      |
|    \\/     M anipulation  |                                                 |
\*---------------------------------------------------------------------------*/
FoamFile
{
    version     2.0;
    format      ascii;
    class       polyBoundaryMesh;
    location    "constant/polyMesh";
    object      boundary;
}
// * * * * * * * * * * * * * * * * * * * * * * * * * * * * * * * * * * * * * //

5
(
    inlet
    {
        type            patch;
        nFaces          80;
        startFace       382240;
    }
    outlet
    {
        type            patch;
        nFaces          160;
        startFace       382320;
    }
    upperWall
    {
        type            wall;
        inGroups        1(wall);
        nFaces          1600;
        startFace       382480;
    }
    lowerWall
    {
        type            wall;
        inGroups        1(wall);
        nFaces          1680;
        startFace       384080;
    }
    frontAndBack
    {
        type            empty;
        inGroups        1(empty);
        nFaces          384000;
        startFace       385760;
    }
)

// ************************************************************************* //
